bes/IEEE118_wmva.m
function mpc = IEEE118_wmva
mpc.version = "2";
mpc.baseMVA = 100.00;
mpc.bus = [
      1.000000     1.000000    51.000000    27.000000     0.000000     0.000000     1.000000     1.000000     0.000000   138.000000     1.000000     1.100000     0.900000;
      2.000000     1.000000    20.000000     9.000000     0.000000     0.000000     1.000000     1.000000     0.000000   138.000000     1.000000     1.100000     0.900000;
      3.000000     1.000000    39.000000    10.000000     0.000000     0.000000     1.000000     1.000000     0.000000   138.000000     1.000000     1.100000     0.900000;
      4.000000     1.000000    39.000000    12.000000     0.000000     0.000000     1.000000     1.000000     0.000000   138.000000     1.000000     1.100000     0.900000;
      5.000000     1.000000     0.000000     0.000000     0.000000   -40.000000     1.000000     1.000000     0.000000   138.000000     1.000000     1.100000     0.900000;
      6.000000     1.000000    52.000000    22.000000     0.000000     0.000000     1.000000     1.000000     0.000000   138.000000     1.000000     1.100000     0.900000;
      7.000000     1.000000    19.000000     2.000000     0.000000     0.000000     1.000000     1.000000     0.000000   138.000000     1.000000     1.100000     0.900000;
      8.000000     1.000000    28.000000     0.000000     0.000000     0.000000     1.000000     1.000000     0.000000   345.000000     1.000000     1.100000     0.900000;
      9.000000     1.000000     0.000000     0.000000     0.000000     0.000000     1.000000     1.000000     0.000000   345.000000     1.000000     1.100000     0.900000;
     10.000000     1.000000     0.000000     0.000000     0.000000     0.000000     1.000000     1.000000     0.000000   345.000000     1.000000     1.100000     0.900000;
     11.000000     1.000000    70.000000    23.000000     0.000000     0.000000     1.000000     1.000000     0.000000   138.000000     1.000000     1.100000     0.900000;
     12.000000     1.000000    47.000000    10.000000     0.000000     0.000000     1.000000     1.000000     0.000000   138.000000     1.000000     1.100000     0.900000;
     13.000000     1.000000    34.000000    16.000000     0.000000     0.000000     1.000000     1.000000     0.000000   138.000000     1.000000     1.100000     0.900000;
     14.000000     1.000000    14.000000     1.000000     0.000000     0.000000     1.000000     1.000000     0.000000   138.000000     1.000000     1.100000     0.900000;
     15.000000     1.000000    90.000000    30.000000     0.000000     0.000000     1.000000     1.000000     0.000000   138.000000     1.000000     1.100000     0.900000;
     16.000000     1.000000    25.000000    10.000000     0.000000     0.000000     1.000000     1.000000     0.000000   138.000000     1.000000     1.100000     0.900000;
     17.000000     1.000000    11.000000     3.000000     0.000000     0.000000     1.000000     1.000000     0.000000   138.000000     1.000000     1.100000     0.900000;
     18.000000     1.000000    60.000000    34.000000     0.000000     0.000000     1.000000     1.000000     0.000000   138.000000     1.000000     1.100000     0.900000;
     19.000000     1.000000    45.000000    25.000000     0.000000     0.000000     1.000000     1.000000     0.000000   138.000000     1.000000     1.100000     0.900000;
     20.000000     1.000000    18.000000     3.000000     0.000000     0.000000     1.000000     1.000000     0.000000   138.000000     1.000000     1.100000     0.900000;
     21.000000     1.000000    14.000000     8.000000     0.000000     0.000000     1.000000     1.000000     0.000000   138.000000     1.000000     1.100000     0.900000;
     22.000000     1.000000    10.000000     5.000000     0.000000     0.000000     1.000000     1.000000     0.000000   138.000000     1.000000     1.100000     0.900000;
     23.000000     1.000000     7.000000     3.000000     0.000000     0.000000     1.000000     1.000000     0.000000   138.000000     1.000000     1.100000     0.900000;
     24.000000     1.000000    13.000000     0.000000     0.000000     0.000000     1.000000     1.000000     0.000000   138.000000     1.000000     1.100000     0.900000;
     25.000000     1.000000     0.000000     0.000000     0.000000     0.000000     1.000000     1.000000     0.000000   138.000000     1.000000     1.100000     0.900000;
     26.000000     1.000000     0.000000     0.000000     0.000000     0.000000     1.000000     1.000000     0.000000   345.000000     1.000000     1.100000     0.900000;
     27.000000     1.000000    71.000000    13.000000     0.000000     0.000000     1.000000     1.000000     0.000000   138.000000     1.000000     1.100000     0.900000;
     28.000000     1.000000    17.000000     7.000000     0.000000     0.000000     1.000000     1.000000     0.000000   138.000000     1.000000     1.100000     0.900000;
     29.000000     1.000000    24.000000     4.000000     0.000000     0.000000     1.000000     1.000000     0.000000   138.000000     1.000000     1.100000     0.900000;
     30.000000     1.000000     0.000000     0.000000     0.000000     0.000000     1.000000     1.000000     0.000000   345.000000     1.000000     1.100000     0.900000;
     31.000000     1.000000    43.000000    27.000000     0.000000     0.000000     1.000000     1.000000     0.000000   138.000000     1.000000     1.100000     0.900000;
     32.000000     1.000000    59.000000    23.000000     0.000000     0.000000     1.000000     1.000000     0.000000   138.000000     1.000000     1.100000     0.900000;
     33.000000     1.000000    23.000000     9.000000     0.000000     0.000000     1.000000     1.000000     0.000000   138.000000     1.000000     1.100000     0.900000;
     34.000000     1.000000    59.000000    26.000000     0.000000    14.000000     1.000000     1.000000     0.000000   138.000000     1.000000     1.100000     0.900000;
     35.000000     1.000000    33.000000     9.000000     0.000000     0.000000     1.000000     1.000000     0.000000   138.000000     1.000000     1.100000     0.900000;
     36.000000     1.000000    31.000000    17.000000     0.000000     0.000000     1.000000     1.000000     0.000000   138.000000     1.000000     1.100000     0.900000;
     37.000000     1.000000     0.000000     0.000000     0.000000   -25.000000     1.000000     1.000000     0.000000   138.000000     1.000000     1.100000     0.900000;
     38.000000     1.000000     0.000000     0.000000     0.000000     0.000000     1.000000     1.000000     0.000000   345.000000     1.000000     1.100000     0.900000;
     39.000000     1.000000    27.000000    11.000000     0.000000     0.000000     1.000000     1.000000     0.000000   138.000000     1.000000     1.100000     0.900000;
     40.000000     1.000000    66.000000    23.000000     0.000000     0.000000     1.000000     1.000000     0.000000   138.000000     1.000000     1.100000     0.900000;
     41.000000     1.000000    37.000000    10.000000     0.000000     0.000000     1.000000     1.000000     0.000000   138.000000     1.000000     1.100000     0.900000;
     42.000000     1.000000    96.000000    23.000000     0.000000     0.000000     1.000000     1.000000     0.000000   138.000000     1.000000     1.100000     0.900000;
     43.000000     1.000000    18.000000     7.000000     0.000000     0.000000     1.000000     1.000000     0.000000   138.000000     1.000000     1.100000     0.900000;
     44.000000     1.000000    16.000000     8.000000     0.000000    10.000000     1.000000     1.000000     0.000000   138.000000     1.000000     1.100000     0.900000;
     45.000000     1.000000    53.000000    22.000000     0.000000    10.000000     1.000000     1.000000     0.000000   138.000000     1.000000     1.100000     0.900000;
     46.000000     1.000000    28.000000    10.000000     0.000000    10.000000     1.000000     1.000000     0.000000   138.000000     1.000000     1.100000     0.900000;
     47.000000     1.000000    34.000000     0.000000     0.000000     0.000000     1.000000     1.000000     0.000000   138.000000     1.000000     1.100000     0.900000;
     48.000000     1.000000    20.000000    11.000000     0.000000    15.000000     1.000000     1.000000     0.000000   138.000000     1.000000     1.100000     0.900000;
     49.000000     1.000000    87.000000    30.000000     0.000000     0.000000     1.000000     1.000000     0.000000   138.000000     1.000000     1.100000     0.900000;
     50.000000     1.000000    17.000000     4.000000     0.000000     0.000000     1.000000     1.000000     0.000000   138.000000     1.000000     1.100000     0.900000;
     51.000000     1.000000    17.000000     8.000000     0.000000     0.000000     1.000000     1.000000     0.000000   138.000000     1.000000     1.100000     0.900000;
     52.000000     1.000000    18.000000     5.000000     0.000000     0.000000     1.000000     1.000000     0.000000   138.000000     1.000000     1.100000     0.900000;
     53.000000     1.000000    23.000000    11.000000     0.000000     0.000000     1.000000     1.000000     0.000000   138.000000     1.000000     1.100000     0.900000;
     54.000000     1.000000   113.000000    32.000000     0.000000     0.000000     1.000000     1.000000     0.000000   138.000000     1.000000     1.100000     0.900000;
     55.000000     1.000000    63.000000    22.000000     0.000000     0.000000     1.000000     1.000000     0.000000   138.000000     1.000000     1.100000     0.900000;
     56.000000     1.000000    84.000000    18.000000     0.000000     0.000000     1.000000     1.000000     0.000000   138.000000     1.000000     1.100000     0.900000;
     57.000000     1.000000    12.000000     3.000000     0.000000     0.000000     1.000000     1.000000     0.000000   138.000000     1.000000     1.100000     0.900000;
     58.000000     1.000000    12.000000     3.000000     0.000000     0.000000     1.000000     1.000000     0.000000   138.000000     1.000000     1.100000     0.900000;
     59.000000     1.000000   277.000000   113.000000     0.000000     0.000000     1.000000     1.000000     0.000000   138.000000     1.000000     1.100000     0.900000;
     60.000000     1.000000    78.000000     3.000000     0.000000     0.000000     1.000000     1.000000     0.000000   138.000000     1.000000     1.100000     0.900000;
     61.000000     1.000000     0.000000     0.000000     0.000000     0.000000     1.000000     1.000000     0.000000   138.000000     1.000000     1.100000     0.900000;
     62.000000     1.000000    77.000000    14.000000     0.000000     0.000000     1.000000     1.000000     0.000000   138.000000     1.000000     1.100000     0.900000;
     63.000000     1.000000     0.000000     0.000000     0.000000     0.000000     1.000000     1.000000     0.000000   345.000000     1.000000     1.100000     0.900000;
     64.000000     1.000000     0.000000     0.000000     0.000000     0.000000     1.000000     1.000000     0.000000   345.000000     1.000000     1.100000     0.900000;
     65.000000     1.000000     0.000000     0.000000     0.000000     0.000000     1.000000     1.000000     0.000000   345.000000     1.000000     1.100000     0.900000;
     66.000000     1.000000    39.000000    18.000000     0.000000     0.000000     1.000000     1.000000     0.000000   138.000000     1.000000     1.100000     0.900000;
     67.000000     1.000000    28.000000     7.000000     0.000000     0.000000     1.000000     1.000000     0.000000   138.000000     1.000000     1.100000     0.900000;
     68.000000     1.000000     0.000000     0.000000     0.000000     0.000000     1.000000     1.000000     0.000000   345.000000     1.000000     1.100000     0.900000;
     69.000000     1.000000     0.000000     0.000000     0.000000     0.000000     1.000000     1.000000     0.000000   138.000000     1.000000     1.100000     0.900000;
     70.000000     1.000000    66.000000    20.000000     0.000000     0.000000     1.000000     1.000000     0.000000   138.000000     1.000000     1.100000     0.900000;
     71.000000     1.000000     0.000000     0.000000     0.000000     0.000000     1.000000     1.000000     0.000000   138.000000     1.000000     1.100000     0.900000;
     72.000000     1.000000    12.000000     0.000000     0.000000     0.000000     1.000000     1.000000     0.000000   138.000000     1.000000     1.100000     0.900000;
     73.000000     1.000000     6.000000     0.000000     0.000000     0.000000     1.000000     1.000000     0.000000   138.000000     1.000000     1.100000     0.900000;
     74.000000     1.000000    68.000000    27.000000     0.000000    12.000000     1.000000     1.000000     0.000000   138.000000     1.000000     1.100000     0.900000;
     75.000000     1.000000    47.000000    11.000000     0.000000     0.000000     1.000000     1.000000     0.000000   138.000000     1.000000     1.100000     0.900000;
     76.000000     1.000000    68.000000    36.000000     0.000000     0.000000     1.000000     1.000000     0.000000   138.000000     1.000000     1.100000     0.900000;
     77.000000     1.000000    61.000000    28.000000     0.000000     0.000000     1.000000     1.000000     0.000000   138.000000     1.000000     1.100000     0.900000;
     78.000000     1.000000    71.000000    26.000000     0.000000     0.000000     1.000000     1.000000     0.000000   138.000000     1.000000     1.100000     0.900000;
     79.000000     1.000000    39.000000    32.000000     0.000000    20.000000     1.000000     1.000000     0.000000   138.000000     1.000000     1.100000     0.900000;
     80.000000     1.000000   130.000000    26.000000     0.000000     0.000000     1.000000     1.000000     0.000000   138.000000     1.000000     1.100000     0.900000;
     81.000000     1.000000     0.000000     0.000000     0.000000     0.000000     1.000000     1.000000     0.000000   345.000000     1.000000     1.100000     0.900000;
     82.000000     1.000000    54.000000    27.000000     0.000000    20.000000     1.000000     1.000000     0.000000   138.000000     1.000000     1.100000     0.900000;
     83.000000     1.000000    20.000000    10.000000     0.000000    10.000000     1.000000     1.000000     0.000000   138.000000     1.000000     1.100000     0.900000;
     84.000000     1.000000    11.000000     7.000000     0.000000     0.000000     1.000000     1.000000     0.000000   138.000000     1.000000     1.100000     0.900000;
     85.000000     1.000000    24.000000    15.000000     0.000000     0.000000     1.000000     1.000000     0.000000   138.000000     1.000000     1.100000     0.900000;
     86.000000     1.000000    21.000000    10.000000     0.000000     0.000000     1.000000     1.000000     0.000000   138.000000     1.000000     1.100000     0.900000;
     87.000000     1.000000     0.000000     0.000000     0.000000     0.000000     1.000000     1.000000     0.000000   138.000000     1.000000     1.100000     0.900000;
     88.000000     1.000000    48.000000    10.000000     0.000000     0.000000     1.000000     1.000000     0.000000   138.000000     1.000000     1.100000     0.900000;
     89.000000     1.000000     0.000000     0.000000     0.000000     0.000000     1.000000     1.000000     0.000000   138.000000     1.000000     1.100000     0.900000;
     90.000000     1.000000   163.000000    42.000000     0.000000     0.000000     1.000000     1.000000     0.000000   138.000000     1.000000     1.100000     0.900000;
     91.000000     1.000000    10.000000     0.000000     0.000000     0.000000     1.000000     1.000000     0.000000   138.000000     1.000000     1.100000     0.900000;
     92.000000     1.000000    65.000000    10.000000     0.000000     0.000000     1.000000     1.000000     0.000000   138.000000     1.000000     1.100000     0.900000;
     93.000000     1.000000    12.000000     7.000000     0.000000     0.000000     1.000000     1.000000     0.000000   138.000000     1.000000     1.100000     0.900000;
     94.000000     1.000000    30.000000    16.000000     0.000000     0.000000     1.000000     1.000000     0.000000   138.000000     1.000000     1.100000     0.900000;
     95.000000     1.000000    42.000000    31.000000     0.000000     0.000000     1.000000     1.000000     0.000000   138.000000     1.000000     1.100000     0.900000;
     96.000000     1.000000    38.000000    15.000000     0.000000     0.000000     1.000000     1.000000     0.000000   138.000000     1.000000     1.100000     0.900000;
     97.000000     1.000000    15.000000     9.000000     0.000000     0.000000     1.000000     1.000000     0.000000   138.000000     1.000000     1.100000     0.900000;
     98.000000     1.000000    34.000000     8.000000     0.000000     0.000000     1.000000     1.000000     0.000000   138.000000     1.000000     1.100000     0.900000;
     99.000000     1.000000    42.000000     0.000000     0.000000     0.000000     1.000000     1.000000     0.000000   138.000000     1.000000     1.100000     0.900000;
    100.000000     1.000000    37.000000    18.000000     0.000000     0.000000     1.000000     1.000000     0.000000   138.000000     1.000000     1.100000     0.900000;
    101.000000     1.000000    22.000000    15.000000     0.000000     0.000000     1.000000     1.000000     0.000000   138.000000     1.000000     1.100000     0.900000;
    102.000000     1.000000     5.000000     3.000000     0.000000     0.000000     1.000000     1.000000     0.000000   138.000000     1.000000     1.100000     0.900000;
    103.000000     1.000000    23.000000    16.000000     0.000000     0.000000     1.000000     1.000000     0.000000   138.000000     1.000000     1.100000     0.900000;
    104.000000     1.000000    38.000000    25.000000     0.000000     0.000000     1.000000     1.000000     0.000000   138.000000     1.000000     1.100000     0.900000;
    105.000000     1.000000    31.000000    26.000000     0.000000    20.000000     1.000000     1.000000     0.000000   138.000000     1.000000     1.100000     0.900000;
    106.000000     1.000000    43.000000    16.000000     0.000000     0.000000     1.000000     1.000000     0.000000   138.000000     1.000000     1.100000     0.900000;
    107.000000     1.000000    50.000000    12.000000     0.000000     6.000000     1.000000     1.000000     0.000000   138.000000     1.000000     1.100000     0.900000;
    108.000000     1.000000     2.000000     1.000000     0.000000     0.000000     1.000000     1.000000     0.000000   138.000000     1.000000     1.100000     0.900000;
    109.000000     1.000000     8.000000     3.000000     0.000000     0.000000     1.000000     1.000000     0.000000   138.000000     1.000000     1.100000     0.900000;
    110.000000     1.000000    39.000000    30.000000     0.000000     6.000000     1.000000     1.000000     0.000000   138.000000     1.000000     1.100000     0.900000;
    111.000000     1.000000     0.000000     0.000000     0.000000     0.000000     1.000000     1.000000     0.000000   138.000000     1.000000     1.100000     0.900000;
    112.000000     1.000000    68.000000    13.000000     0.000000     0.000000     1.000000     1.000000     0.000000   138.000000     1.000000     1.100000     0.900000;
    113.000000     1.000000     6.000000     0.000000     0.000000     0.000000     1.000000     1.000000     0.000000   138.000000     1.000000     1.100000     0.900000;
    114.000000     1.000000     8.000000     3.000000     0.000000     0.000000     1.000000     1.000000     0.000000   138.000000     1.000000     1.100000     0.900000;
    115.000000     1.000000    22.000000     7.000000     0.000000     0.000000     1.000000     1.000000     0.000000   138.000000     1.000000     1.100000     0.900000;
    116.000000     1.000000   184.000000     0.000000     0.000000     0.000000     1.000000     1.000000     0.000000   345.000000     1.000000     1.100000     0.900000;
    117.000000     1.000000    20.000000     8.000000     0.000000     0.000000     1.000000     1.000000     0.000000   138.000000     1.000000     1.100000     0.900000;
    118.000000     1.000000    33.000000    15.000000     0.000000     0.000000     1.000000     1.000000     0.000000   138.000000     1.000000     1.100000     0.900000;
    119.000000     2.000000     0.000000     0.000000     0.000000     0.000000     1.000000     1.000000     0.000000    13.800000     1.000000     1.100000     0.900000;
    120.000000     2.000000     0.000000     0.000000     0.000000     0.000000     1.000000     1.000000     0.000000    13.800000     1.000000     1.100000     0.900000;
    121.000000     2.000000     0.000000     0.000000     0.000000     0.000000     1.000000     1.000000     0.000000    13.800000     1.000000     1.100000     0.900000;
    122.000000     2.000000     0.000000     0.000000     0.000000     0.000000     1.000000     1.000000     0.000000    13.800000     1.000000     1.100000     0.900000;
    123.000000     2.000000     0.000000     0.000000     0.000000     0.000000     1.000000     1.000000     0.000000    13.800000     1.000000     1.100000     0.900000;
    124.000000     2.000000     0.000000     0.000000     0.000000     0.000000     1.000000     1.000000     0.000000    13.800000     1.000000     1.100000     0.900000;
    125.000000     2.000000     0.000000     0.000000     0.000000     0.000000     1.000000     1.000000     0.000000    13.800000     1.000000     1.100000     0.900000;
    126.000000     2.000000     0.000000     0.000000     0.000000     0.000000     1.000000     1.000000     0.000000    13.800000     1.000000     1.100000     0.900000;
    127.000000     2.000000     0.000000     0.000000     0.000000     0.000000     1.000000     1.000000     0.000000    13.800000     1.000000     1.100000     0.900000;
    128.000000     2.000000     0.000000     0.000000     0.000000     0.000000     1.000000     1.000000     0.000000    13.800000     1.000000     1.100000     0.900000;
    129.000000     2.000000     0.000000     0.000000     0.000000     0.000000     1.000000     1.000000     0.000000    13.800000     1.000000     1.100000     0.900000;
    130.000000     2.000000     0.000000     0.000000     0.000000     0.000000     1.000000     1.000000     0.000000    13.800000     1.000000     1.100000     0.900000;
    131.000000     3.000000     0.000000     0.000000     0.000000     0.000000     1.000000     1.000000     0.000000    13.800000     1.000000     1.100000     0.900000;
    132.000000     2.000000     0.000000     0.000000     0.000000     0.000000     1.000000     1.000000     0.000000    13.800000     1.000000     1.100000     0.900000;
    133.000000     2.000000     0.000000     0.000000     0.000000     0.000000     1.000000     1.000000     0.000000    13.800000     1.000000     1.100000     0.900000;
    134.000000     2.000000     0.000000     0.000000     0.000000     0.000000     1.000000     1.000000     0.000000    13.800000     1.000000     1.100000     0.900000;
    135.000000     2.000000     0.000000     0.000000     0.000000     0.000000     1.000000     1.000000     0.000000    13.800000     1.000000     1.100000     0.900000;
    136.000000     2.000000     0.000000     0.000000     0.000000     0.000000     1.000000     1.000000     0.000000    13.800000     1.000000     1.100000     0.900000;
    137.000000     2.000000     0.000000     0.000000     0.000000     0.000000     1.000000     1.000000     0.000000    13.800000     1.000000     1.100000     0.900000;
    138.000000     2.000000     0.000000     0.000000     0.000000     0.000000     1.000000     1.000000     0.000000    13.800000     1.000000     1.100000     0.900000;
    139.000000     2.000000     0.000000     0.000000     0.000000     0.000000     1.000000     1.000000     0.000000    13.800000     1.000000     1.100000     0.900000;
    140.000000     2.000000     0.000000     0.000000     0.000000     0.000000     1.000000     1.000000     0.000000    13.800000     1.000000     1.100000     0.900000;
    141.000000     2.000000     0.000000     0.000000     0.000000     0.000000     1.000000     1.000000     0.000000    13.800000     1.000000     1.100000     0.900000;
    142.000000     2.000000     0.000000     0.000000     0.000000     0.000000     1.000000     1.000000     0.000000    13.800000     1.000000     1.100000     0.900000;
    143.000000     2.000000     0.000000     0.000000     0.000000     0.000000     1.000000     1.000000     0.000000    13.800000     1.000000     1.100000     0.900000;
    144.000000     2.000000     0.000000     0.000000     0.000000     0.000000     1.000000     1.000000     0.000000    13.800000     1.000000     1.100000     0.900000;
    145.000000     2.000000     0.000000     0.000000     0.000000     0.000000     1.000000     1.000000     0.000000    13.800000     1.000000     1.100000     0.900000;
    146.000000     2.000000     0.000000     0.000000     0.000000     0.000000     1.000000     1.000000     0.000000    13.800000     1.000000     1.100000     0.900000;
    147.000000     2.000000     0.000000     0.000000     0.000000     0.000000     1.000000     1.000000     0.000000    13.800000     1.000000     1.100000     0.900000;
    148.000000     2.000000     0.000000     0.000000     0.000000     0.000000     1.000000     1.000000     0.000000    13.800000     1.000000     1.100000     0.900000;
    149.000000     2.000000     0.000000     0.000000     0.000000     0.000000     1.000000     1.000000     0.000000    13.800000     1.000000     1.100000     0.900000;
    150.000000     2.000000     0.000000     0.000000     0.000000     0.000000     1.000000     1.000000     0.000000    13.800000     1.000000     1.100000     0.900000;
    151.000000     2.000000     0.000000     0.000000     0.000000     0.000000     1.000000     1.000000     0.000000    13.800000     1.000000     1.100000     0.900000;
    152.000000     2.000000     0.000000     0.000000     0.000000     0.000000     1.000000     1.000000     0.000000    13.800000     1.000000     1.100000     0.900000;
    153.000000     2.000000     0.000000     0.000000     0.000000     0.000000     1.000000     1.000000     0.000000    13.800000     1.000000     1.100000     0.900000;
    154.000000     2.000000     0.000000     0.000000     0.000000     0.000000     1.000000     1.000000     0.000000    13.800000     1.000000     1.100000     0.900000;
    155.000000     2.000000     0.000000     0.000000     0.000000     0.000000     1.000000     1.000000     0.000000    13.800000     1.000000     1.100000     0.900000;
    156.000000     2.000000     0.000000     0.000000     0.000000     0.000000     1.000000     1.000000     0.000000    13.800000     1.000000     1.100000     0.900000;
    157.000000     2.000000     0.000000     0.000000     0.000000     0.000000     1.000000     1.000000     0.000000    13.800000     1.000000     1.100000     0.900000;
    158.000000     2.000000     0.000000     0.000000     0.000000     0.000000     1.000000     1.000000     0.000000    13.800000     1.000000     1.100000     0.900000;
    159.000000     2.000000     0.000000     0.000000     0.000000     0.000000     1.000000     1.000000     0.000000    13.800000     1.000000     1.100000     0.900000;
    160.000000     2.000000     0.000000     0.000000     0.000000     0.000000     1.000000     1.000000     0.000000    13.800000     1.000000     1.100000     0.900000;
    161.000000     2.000000     0.000000     0.000000     0.000000     0.000000     1.000000     1.000000     0.000000    13.800000     1.000000     1.100000     0.900000;
    162.000000     2.000000     0.000000     0.000000     0.000000     0.000000     1.000000     1.000000     0.000000    13.800000     1.000000     1.100000     0.900000;
    163.000000     2.000000     0.000000     0.000000     0.000000     0.000000     1.000000     1.000000     0.000000    13.800000     1.000000     1.100000     0.900000;
    164.000000     2.000000     0.000000     0.000000     0.000000     0.000000     1.000000     1.000000     0.000000    13.800000     1.000000     1.100000     0.900000;
    165.000000     2.000000     0.000000     0.000000     0.000000     0.000000     1.000000     1.000000     0.000000    13.800000     1.000000     1.100000     0.900000;
    166.000000     2.000000     0.000000     0.000000     0.000000     0.000000     1.000000     1.000000     0.000000    13.800000     1.000000     1.100000     0.900000;
    167.000000     2.000000     0.000000     0.000000     0.000000     0.000000     1.000000     1.000000     0.000000    13.800000     1.000000     1.100000     0.900000;
    168.000000     2.000000     0.000000     0.000000     0.000000     0.000000     1.000000     1.000000     0.000000    13.800000     1.000000     1.100000     0.900000;
    169.000000     2.000000     0.000000     0.000000     0.000000     0.000000     1.000000     1.000000     0.000000    13.800000     1.000000     1.100000     0.900000;
    170.000000     2.000000     0.000000     0.000000     0.000000     0.000000     1.000000     1.000000     0.000000    13.800000     1.000000     1.100000     0.900000;
    171.000000     2.000000     0.000000     0.000000     0.000000     0.000000     1.000000     1.000000     0.000000    13.800000     1.000000     1.100000     0.900000;
    172.000000     2.000000     0.000000     0.000000     0.000000     0.000000     1.000000     1.000000     0.000000    13.800000     1.000000     1.100000     0.900000;
    173.000000     2.000000     0.000000     0.000000     0.000000     0.000000     1.000000     1.000000     0.000000    13.800000     1.000000     1.100000     0.900000;
    174.000000     2.000000     0.000000     0.000000     0.000000     0.000000     1.000000     1.000000     0.000000    13.800000     1.000000     1.100000     0.900000;
    175.000000     2.000000     0.000000     0.000000     0.000000     0.000000     1.000000     1.000000     0.000000    13.800000     1.000000     1.100000     0.900000;
    176.000000     2.000000     0.000000     0.000000     0.000000     0.000000     1.000000     1.000000     0.000000    13.800000     1.000000     1.100000     0.900000;
    177.000000     2.000000     0.000000     0.000000     0.000000     0.000000     1.000000     1.000000     0.000000    13.800000     1.000000     1.100000     0.900000;
    178.000000     2.000000     0.000000     0.000000     0.000000     0.000000     1.000000     1.000000     0.000000    13.800000     1.000000     1.100000     0.900000;
    179.000000     2.000000     0.000000     0.000000     0.000000     0.000000     1.000000     1.000000     0.000000    13.800000     1.000000     1.100000     0.900000;
    180.000000     2.000000     0.000000     0.000000     0.000000     0.000000     1.000000     1.000000     0.000000    13.800000     1.000000     1.100000     0.900000;
    181.000000     2.000000     0.000000     0.000000     0.000000     0.000000     1.000000     1.000000     0.000000    13.800000     1.000000     1.100000     0.900000;
    182.000000     2.000000     0.000000     0.000000     0.000000     0.000000     1.000000     1.000000     0.000000    13.800000     1.000000     1.100000     0.900000;
    183.000000     2.000000     0.000000     0.000000     0.000000     0.000000     1.000000     1.000000     0.000000    13.800000     1.000000     1.100000     0.900000;
    184.000000     2.000000     0.000000     0.000000     0.000000     0.000000     1.000000     1.000000     0.000000    13.800000     1.000000     1.100000     0.900000;
    185.000000     2.000000     0.000000     0.000000     0.000000     0.000000     1.000000     1.000000     0.000000    13.800000     1.000000     1.100000     0.900000;
    186.000000     2.000000     0.000000     0.000000     0.000000     0.000000     1.000000     1.000000     0.000000    13.800000     1.000000     1.100000     0.900000;
    187.000000     2.000000     0.000000     0.000000     0.000000     0.000000     1.000000     1.000000     0.000000    13.800000     1.000000     1.100000     0.900000;
    188.000000     2.000000     0.000000     0.000000     0.000000     0.000000     1.000000     1.000000     0.000000    13.800000     1.000000     1.100000     0.900000;
    189.000000     2.000000     0.000000     0.000000     0.000000     0.000000     1.000000     1.000000     0.000000    13.800000     1.000000     1.100000     0.900000;
    190.000000     2.000000     0.000000     0.000000     0.000000     0.000000     1.000000     1.000000     0.000000    13.800000     1.000000     1.100000     0.900000;
    191.000000     2.000000     0.000000     0.000000     0.000000     0.000000     1.000000     1.000000     0.000000    13.800000     1.000000     1.100000     0.900000;
    192.000000     2.000000     0.000000     0.000000     0.000000     0.000000     1.000000     1.000000     0.000000    13.800000     1.000000     1.100000     0.900000;
    193.000000     2.000000     0.000000     0.000000     0.000000     0.000000     1.000000     1.000000     0.000000    13.800000     1.000000     1.100000     0.900000;
];
mpc.gen = [
    119.000000     0.000000    -3.104000    48.000000   -15.000000     1.000000   115.000000     1.000000   115.000000     0.000000     0.000000     0.000000     0.000000     0.000000     0.000000     0.000000     0.000000     0.000000     0.000000     0.000000     0.000000;
    120.000000     0.000000   -15.005000   100.000000  -100.000000     1.000000   115.000000     1.000000   115.000000     0.000000     0.000000     0.000000     0.000000     0.000000     0.000000     0.000000     0.000000     0.000000     0.000000     0.000000     0.000000;
    121.000000     0.000000    15.930000    50.000000   -13.000000     1.000000   115.000000     1.000000   115.000000     0.000000     0.000000     0.000000     0.000000     0.000000     0.000000     0.000000     0.000000     0.000000     0.000000     0.000000     0.000000;
    122.000000     0.000000    62.758000    35.700000   -35.700000     1.000000    42.000000     1.000000    42.000000     0.000000     0.000000     0.000000     0.000000     0.000000     0.000000     0.000000     0.000000     0.000000     0.000000     0.000000     0.000000;
    123.000000   210.800000   -51.042000   100.000000   -73.500000     1.000000   248.000000     1.000000   248.000000     0.000000     0.000000     0.000000     0.000000     0.000000     0.000000     0.000000     0.000000     0.000000     0.000000     0.000000     0.000000;
    124.000000    20.000000    91.274000    12.500000    -8.800000     1.000000    23.500000     1.000000    23.500000     0.000000     0.000000     0.000000     0.000000     0.000000     0.000000     0.000000     0.000000     0.000000     0.000000     0.000000     0.000000;
    125.000000     0.000000     3.060000    30.000000   -10.000000     1.000000   115.000000     1.000000   115.000000     0.000000     0.000000     0.000000     0.000000     0.000000     0.000000     0.000000     0.000000     0.000000     0.000000     0.000000     0.000000;
    127.000000     0.000000    25.532000    50.000000   -16.000000     1.000000   115.000000     1.000000   115.000000     0.000000     0.000000     0.000000     0.000000     0.000000     0.000000     0.000000     0.000000     0.000000     0.000000     0.000000     0.000000;
    129.000000     0.000000    -8.000000    24.000000    -8.000000     1.000000   115.000000     1.000000   115.000000     0.000000     0.000000     0.000000     0.000000     0.000000     0.000000     0.000000     0.000000     0.000000     0.000000     0.000000     0.000000;
    131.000000     0.000000   -15.282000    42.500000   -42.500000     1.000000   470.000000     1.000000   470.000000     0.000000     0.000000     0.000000     0.000000     0.000000     0.000000     0.000000     0.000000     0.000000     0.000000     0.000000     0.000000;
    133.000000   182.800000    49.798000   110.000000   -47.000000     1.000000   215.000000     1.000000   215.000000     0.000000     0.000000     0.000000     0.000000     0.000000     0.000000     0.000000     0.000000     0.000000     0.000000     0.000000     0.000000;
    134.000000   130.000000     9.905000    80.000000   -80.000000     1.000000   153.000000     1.000000   153.000000     0.000000     0.000000     0.000000     0.000000     0.000000     0.000000     0.000000     0.000000     0.000000     0.000000     0.000000     0.000000;
    135.000000     0.000000     2.831000   300.000000  -300.000000     1.000000   440.000000     1.000000   440.000000     0.000000     0.000000     0.000000     0.000000     0.000000     0.000000     0.000000     0.000000     0.000000     0.000000     0.000000     0.000000;
    137.000000     7.000000    31.976000     4.000000    -4.000000     1.000000     8.000000     1.000000     8.000000     0.000000     0.000000     0.000000     0.000000     0.000000     0.000000     0.000000     0.000000     0.000000     0.000000     0.000000     0.000000;
    139.000000     0.000000   -14.000000    42.000000   -14.000000     1.000000   115.000000     1.000000   115.000000     0.000000     0.000000     0.000000     0.000000     0.000000     0.000000     0.000000     0.000000     0.000000     0.000000     0.000000     0.000000;
    141.000000     0.000000    -8.000000    24.000000    -8.000000     1.000000   115.000000     1.000000   115.000000     0.000000     0.000000     0.000000     0.000000     0.000000     0.000000     0.000000     0.000000     0.000000     0.000000     0.000000     0.000000;
    142.000000     0.000000    -1.252000    24.000000    -8.000000     1.000000   115.000000     1.000000   115.000000     0.000000     0.000000     0.000000     0.000000     0.000000     0.000000     0.000000     0.000000     0.000000     0.000000     0.000000     0.000000;
    143.000000     0.000000    26.886000   100.000000  -100.000000     1.000000   115.000000     1.000000   115.000000     0.000000     0.000000     0.000000     0.000000     0.000000     0.000000     0.000000     0.000000     0.000000     0.000000     0.000000     0.000000;
    144.000000     0.000000    41.004000    29.800000   -29.800000     1.000000    35.000000     1.000000    35.000000     0.000000     0.000000     0.000000     0.000000     0.000000     0.000000     0.000000     0.000000     0.000000     0.000000     0.000000     0.000000;
    145.000000     9.300000    -5.231000     6.000000    -4.000000     1.000000    10.900000     1.000000    10.900000     0.000000     0.000000     0.000000     0.000000     0.000000     0.000000     0.000000     0.000000     0.000000     0.000000     0.000000     0.000000;
    146.000000   106.500000   115.647000    90.000000   -45.000000     1.000000   150.000000     1.000000   150.000000     0.000000     0.000000     0.000000     0.000000     0.000000     0.000000     0.000000     0.000000     0.000000     0.000000     0.000000     0.000000;
    147.000000    34.000000     3.902000    20.000000   -20.000000     1.000000    40.000000     1.000000    40.000000     0.000000     0.000000     0.000000     0.000000     0.000000     0.000000     0.000000     0.000000     0.000000     0.000000     0.000000     0.000000;
    148.000000    35.000000     3.902000    20.000000   -20.000000     1.000000    40.000000     1.000000    40.000000     0.000000     0.000000     0.000000     0.000000     0.000000     0.000000     0.000000     0.000000     0.000000     0.000000     0.000000     0.000000;
    150.000000     0.000000     4.664000    23.000000    -8.000000     1.000000   115.000000     1.000000   115.000000     0.000000     0.000000     0.000000     0.000000     0.000000     0.000000     0.000000     0.000000     0.000000     0.000000     0.000000     0.000000;
    152.000000     0.000000    -2.286000    15.000000    -8.000000     1.000000    20.000000     1.000000    20.000000     0.000000     0.000000     0.000000     0.000000     0.000000     0.000000     0.000000     0.000000     0.000000     0.000000     0.000000     0.000000;
    153.000000    95.000000    76.834000    65.000000   -30.000000     1.000000   115.000000     1.000000   115.000000     0.000000     0.000000     0.000000     0.000000     0.000000     0.000000     0.000000     0.000000     0.000000     0.000000     0.000000     0.000000;
    154.000000   200.000000   -40.394000   130.000000  -100.000000     1.000000   238.000000     1.000000   238.000000     0.000000     0.000000     0.000000     0.000000     0.000000     0.000000     0.000000     0.000000     0.000000     0.000000     0.000000     0.000000;
    155.000000     0.000000     1.259000    50.000000   -50.000000     1.000000   115.000000     1.000000   115.000000     0.000000     0.000000     0.000000     0.000000     0.000000     0.000000     0.000000     0.000000     0.000000     0.000000     0.000000     0.000000;
    156.000000   187.000000    80.812000   100.000000   -33.500000     1.000000   220.000000     1.000000   220.000000     0.000000     0.000000     0.000000     0.000000     0.000000     0.000000     0.000000     0.000000     0.000000     0.000000     0.000000     0.000000;
    157.000000   196.000000    -1.951000   100.000000   -33.500000     1.000000   238.000000     1.000000   238.000000     0.000000     0.000000     0.000000     0.000000     0.000000     0.000000     0.000000     0.000000     0.000000     0.000000     0.000000     0.000000;
    158.000000   513.388000   -82.378000   300.000000  -300.000000     1.000000   153.000000     1.000000   153.000000     0.000000     0.000000     0.000000     0.000000     0.000000     0.000000     0.000000     0.000000     0.000000     0.000000     0.000000     0.000000;
    160.000000     0.000000     9.664000    32.000000   -10.000000     1.000000   115.000000     1.000000   115.000000     0.000000     0.000000     0.000000     0.000000     0.000000     0.000000     0.000000     0.000000     0.000000     0.000000     0.000000     0.000000;
    161.000000     0.000000   -11.130000   100.000000  -100.000000     1.000000   110.000000     1.000000   110.000000     0.000000     0.000000     0.000000     0.000000     0.000000     0.000000     0.000000     0.000000     0.000000     0.000000     0.000000     0.000000;
    162.000000     0.000000     9.651000   100.000000  -100.000000     1.000000   115.000000     1.000000   115.000000     0.000000     0.000000     0.000000     0.000000     0.000000     0.000000     0.000000     0.000000     0.000000     0.000000     0.000000     0.000000;
    163.000000     0.000000    -5.628000     9.000000    -6.000000     1.000000   115.000000     1.000000   115.000000     0.000000     0.000000     0.000000     0.000000     0.000000     0.000000     0.000000     0.000000     0.000000     0.000000     0.000000     0.000000;
    164.000000     0.000000     5.269000    50.000000   -50.000000     1.000000   115.000000     1.000000   115.000000     0.000000     0.000000     0.000000     0.000000     0.000000     0.000000     0.000000     0.000000     0.000000     0.000000     0.000000     0.000000;
    166.000000     0.000000    11.943000    70.000000   -20.000000     1.000000   115.000000     1.000000   115.000000     0.000000     0.000000     0.000000     0.000000     0.000000     0.000000     0.000000     0.000000     0.000000     0.000000     0.000000     0.000000;
    167.000000   137.700000   105.050000   140.000000   -82.500000     1.000000   162.000000     1.000000   162.000000     0.000000     0.000000     0.000000     0.000000     0.000000     0.000000     0.000000     0.000000     0.000000     0.000000     0.000000     0.000000;
    169.000000     0.000000    -5.768000    23.000000    -8.000000     1.000000   115.000000     1.000000   115.000000     0.000000     0.000000     0.000000     0.000000     0.000000     0.000000     0.000000     0.000000     0.000000     0.000000     0.000000     0.000000;
    170.000000    10.000000    11.022000     7.500000    -5.000000     1.000000    12.500000     1.000000    12.500000     0.000000     0.000000     0.000000     0.000000     0.000000     0.000000     0.000000     0.000000     0.000000     0.000000     0.000000     0.000000;
    171.000000   202.000000   -11.794000   100.000000   -70.000000     1.000000   238.000000     1.000000   238.000000     0.000000     0.000000     0.000000     0.000000     0.000000     0.000000     0.000000     0.000000     0.000000     0.000000     0.000000     0.000000;
    172.000000     0.000000    59.300000    32.700000   -32.700000     1.000000    38.500000     1.000000    38.500000     0.000000     0.000000     0.000000     0.000000     0.000000     0.000000     0.000000     0.000000     0.000000     0.000000     0.000000     0.000000;
    173.000000     0.000000   -14.847000    29.800000   -29.800000     1.000000    35.000000     1.000000    35.000000     0.000000     0.000000     0.000000     0.000000     0.000000     0.000000     0.000000     0.000000     0.000000     0.000000     0.000000     0.000000;
    174.000000     0.000000    -3.000000    21.000000    -3.000000     1.000000   115.000000     1.000000   115.000000     0.000000     0.000000     0.000000     0.000000     0.000000     0.000000     0.000000     0.000000     0.000000     0.000000     0.000000     0.000000;
    176.000000     0.000000   -17.537000   100.000000  -100.000000     1.000000   115.000000     1.000000   115.000000     0.000000     0.000000     0.000000     0.000000     0.000000     0.000000     0.000000     0.000000     0.000000     0.000000     0.000000     0.000000;
    177.000000    85.000000   110.058000    50.000000   -25.000000     1.000000   100.000000     1.000000   100.000000     0.000000     0.000000     0.000000     0.000000     0.000000     0.000000     0.000000     0.000000     0.000000     0.000000     0.000000     0.000000;
    178.000000   200.000000   110.058000   130.000000   -90.000000     1.000000   238.000000     1.000000   238.000000     0.000000     0.000000     0.000000     0.000000     0.000000     0.000000     0.000000     0.000000     0.000000     0.000000     0.000000     0.000000;
    181.000000    60.000000    40.000000    40.000000   -15.000000     1.000000    75.000000     1.000000    75.000000     0.000000     0.000000     0.000000     0.000000     0.000000     0.000000     0.000000     0.000000     0.000000     0.000000     0.000000     0.000000;
    182.000000     0.000000     5.643000    23.000000    -8.000000     1.000000   115.000000     1.000000   115.000000     0.000000     0.000000     0.000000     0.000000     0.000000     0.000000     0.000000     0.000000     0.000000     0.000000     0.000000     0.000000;
    184.000000     0.000000    -8.000000    23.000000    -8.000000     1.000000   115.000000     1.000000   115.000000     0.000000     0.000000     0.000000     0.000000     0.000000     0.000000     0.000000     0.000000     0.000000     0.000000     0.000000     0.000000;
    186.000000     0.000000     5.694000    10.600000   -10.600000     1.000000    12.500000     1.000000    12.500000     0.000000     0.000000     0.000000     0.000000     0.000000     0.000000     0.000000     0.000000     0.000000     0.000000     0.000000     0.000000;
    187.000000     0.000000     4.854000    23.000000    -8.000000     1.000000   115.000000     1.000000   115.000000     0.000000     0.000000     0.000000     0.000000     0.000000     0.000000     0.000000     0.000000     0.000000     0.000000     0.000000     0.000000;
    189.000000    57.000000    -1.844000    35.000000   -30.000000     1.000000    67.000000     1.000000    67.000000     0.000000     0.000000     0.000000     0.000000     0.000000     0.000000     0.000000     0.000000     0.000000     0.000000     0.000000     0.000000;
    190.000000     0.000000    41.512000     8.500000    -8.500000     1.000000    10.000000     1.000000    10.000000     0.000000     0.000000     0.000000     0.000000     0.000000     0.000000     0.000000     0.000000     0.000000     0.000000     0.000000     0.000000;
    192.000000     0.000000     6.323000     5.000000    -5.000000     1.000000     6.000000     1.000000     6.000000     0.000000     0.000000     0.000000     0.000000     0.000000     0.000000     0.000000     0.000000     0.000000     0.000000     0.000000     0.000000;
    193.000000   184.000000    51.324000   184.400000  -184.400000     1.000000   217.000000     1.000000   217.000000     0.000000     0.000000     0.000000     0.000000     0.000000     0.000000     0.000000     0.000000     0.000000     0.000000     0.000000     0.000000;
    126.000000     0.000000     0.000000     0.000000     0.000000     1.000000    53.600000     1.000000    53.600000     0.000000     0.000000     0.000000     0.000000     0.000000     0.000000     0.000000     0.000000     0.000000     0.000000     0.000000     0.000000;
    128.000000     0.000000     0.000000     0.000000     0.000000     1.000000    73.200000     1.000000    73.200000     0.000000     0.000000     0.000000     0.000000     0.000000     0.000000     0.000000     0.000000     0.000000     0.000000     0.000000     0.000000;
    130.000000     0.000000     0.000000     0.000000     0.000000     1.000000    49.600000     1.000000    49.600000     0.000000     0.000000     0.000000     0.000000     0.000000     0.000000     0.000000     0.000000     0.000000     0.000000     0.000000     0.000000;
    140.000000     0.000000     0.000000     0.000000     0.000000     1.000000   300.000000     1.000000   300.000000     0.000000     0.000000     0.000000     0.000000     0.000000     0.000000     0.000000     0.000000     0.000000     0.000000     0.000000     0.000000;
    149.000000     0.000000     0.000000     0.000000     0.000000     1.000000   105.600000     1.000000   105.600000     0.000000     0.000000     0.000000     0.000000     0.000000     0.000000     0.000000     0.000000     0.000000     0.000000     0.000000     0.000000;
    151.000000     0.000000     0.000000     0.000000     0.000000     1.000000    12.000000     1.000000    12.000000     0.000000     0.000000     0.000000     0.000000     0.000000     0.000000     0.000000     0.000000     0.000000     0.000000     0.000000     0.000000;
    159.000000     0.000000     0.000000     0.000000     0.000000     1.000000    49.600000     1.000000    49.600000     0.000000     0.000000     0.000000     0.000000     0.000000     0.000000     0.000000     0.000000     0.000000     0.000000     0.000000     0.000000;
    165.000000     0.000000     0.000000     0.000000     0.000000     1.000000    10.000000     1.000000    10.000000     0.000000     0.000000     0.000000     0.000000     0.000000     0.000000     0.000000     0.000000     0.000000     0.000000     0.000000     0.000000;
    175.000000     0.000000     0.000000     0.000000     0.000000     1.000000   207.600000     1.000000   207.600000     0.000000     0.000000     0.000000     0.000000     0.000000     0.000000     0.000000     0.000000     0.000000     0.000000     0.000000     0.000000;
    179.000000     0.000000     0.000000     0.000000     0.000000     1.000000    41.600000     1.000000    41.600000     0.000000     0.000000     0.000000     0.000000     0.000000     0.000000     0.000000     0.000000     0.000000     0.000000     0.000000     0.000000;
    183.000000     0.000000     0.000000     0.000000     0.000000     1.000000   186.400000     1.000000   186.400000     0.000000     0.000000     0.000000     0.000000     0.000000     0.000000     0.000000     0.000000     0.000000     0.000000     0.000000     0.000000;
    185.000000     0.000000     0.000000     0.000000     0.000000     1.000000   108.800000     1.000000   108.800000     0.000000     0.000000     0.000000     0.000000     0.000000     0.000000     0.000000     0.000000     0.000000     0.000000     0.000000     0.000000;
    188.000000     0.000000     0.000000     0.000000     0.000000     1.000000   101.200000     1.000000   101.200000     0.000000     0.000000     0.000000     0.000000     0.000000     0.000000     0.000000     0.000000     0.000000     0.000000     0.000000     0.000000;
    191.000000     0.000000     0.000000     0.000000     0.000000     1.000000    65.200000     1.000000    65.200000     0.000000     0.000000     0.000000     0.000000     0.000000     0.000000     0.000000     0.000000     0.000000     0.000000     0.000000     0.000000;
    132.000000     0.000000     0.000000     0.000000     0.000000     1.000000    26.000000     1.000000    26.000000     0.000000     0.000000     0.000000     0.000000     0.000000     0.000000     0.000000     0.000000     0.000000     0.000000     0.000000     0.000000;
    136.000000     0.000000     0.000000     0.000000     0.000000     1.000000    41.600000     1.000000    41.600000     0.000000     0.000000     0.000000     0.000000     0.000000     0.000000     0.000000     0.000000     0.000000     0.000000     0.000000     0.000000;
    138.000000     0.000000     0.000000     0.000000     0.000000     1.000000    62.000000     1.000000    62.000000     0.000000     0.000000     0.000000     0.000000     0.000000     0.000000     0.000000     0.000000     0.000000     0.000000     0.000000     0.000000;
    168.000000     0.000000     0.000000     0.000000     0.000000     1.000000   139.200000     1.000000   139.200000     0.000000     0.000000     0.000000     0.000000     0.000000     0.000000     0.000000     0.000000     0.000000     0.000000     0.000000     0.000000;
    180.000000     0.000000     0.000000     0.000000     0.000000     1.000000   160.000000     1.000000   160.000000     0.000000     0.000000     0.000000     0.000000     0.000000     0.000000     0.000000     0.000000     0.000000     0.000000     0.000000     0.000000;
];
mpc.branch = [
    100.000000   101.000000     0.027700     0.126200     0.032800   157.000000   157.000000   157.000000     0.000000     0.000000     1.000000     0.000000     0.000000;
    100.000000   103.000000     0.016000     0.052500     0.053600   314.000000   314.000000   314.000000     0.000000     0.000000     1.000000     0.000000     0.000000;
    100.000000   104.000000     0.045100     0.204000     0.054100   157.000000   157.000000   157.000000     0.000000     0.000000     1.000000     0.000000     0.000000;
    100.000000   106.000000     0.060500     0.229000     0.062000   157.000000   157.000000   157.000000     0.000000     0.000000     1.000000     0.000000     0.000000;
    101.000000   102.000000     0.024600     0.112000     0.029400   157.000000   157.000000   157.000000     0.000000     0.000000     1.000000     0.000000     0.000000;
    103.000000   104.000000     0.046600     0.158400     0.040700   157.000000   157.000000   157.000000     0.000000     0.000000     1.000000     0.000000     0.000000;
    103.000000   105.000000     0.053500     0.162500     0.040800   157.000000   157.000000   157.000000     0.000000     0.000000     1.000000     0.000000     0.000000;
    103.000000   110.000000     0.039060     0.181300     0.046100   157.000000   157.000000   157.000000     0.000000     0.000000     1.000000     0.000000     0.000000;
    104.000000   105.000000     0.009940     0.037800     0.009860   157.000000   157.000000   157.000000     0.000000     0.000000     1.000000     0.000000     0.000000;
    105.000000   106.000000     0.014000     0.054700     0.014340   157.000000   157.000000   157.000000     0.000000     0.000000     1.000000     0.000000     0.000000;
    105.000000   107.000000     0.053000     0.183000     0.047200   157.000000   157.000000   157.000000     0.000000     0.000000     1.000000     0.000000     0.000000;
    105.000000   108.000000     0.026100     0.070300     0.018440   157.000000   157.000000   157.000000     0.000000     0.000000     1.000000     0.000000     0.000000;
    106.000000   107.000000     0.053000     0.183000     0.047200   157.000000   157.000000   157.000000     0.000000     0.000000     1.000000     0.000000     0.000000;
    108.000000   109.000000     0.010500     0.028800     0.007600   157.000000   157.000000   157.000000     0.000000     0.000000     1.000000     0.000000     0.000000;
    109.000000   110.000000     0.027800     0.076200     0.020200   157.000000   157.000000   157.000000     0.000000     0.000000     1.000000     0.000000     0.000000;
    110.000000   111.000000     0.022000     0.075500     0.020000   157.000000   157.000000   157.000000     0.000000     0.000000     1.000000     0.000000     0.000000;
    110.000000   112.000000     0.024700     0.064000     0.062000   314.000000   314.000000   314.000000     0.000000     0.000000     1.000000     0.000000     0.000000;
    114.000000   115.000000     0.002300     0.010400     0.002760   157.000000   157.000000   157.000000     0.000000     0.000000     1.000000     0.000000     0.000000;
     11.000000    12.000000     0.005950     0.019600     0.005020   157.000000   157.000000   157.000000     0.000000     0.000000     1.000000     0.000000     0.000000;
     11.000000    13.000000     0.022250     0.073100     0.018760   157.000000   157.000000   157.000000     0.000000     0.000000     1.000000     0.000000     0.000000;
     12.000000   117.000000     0.032900     0.140000     0.035800   157.000000   157.000000   157.000000     0.000000     0.000000     1.000000     0.000000     0.000000;
     12.000000    14.000000     0.021500     0.070700     0.018160   157.000000   157.000000   157.000000     0.000000     0.000000     1.000000     0.000000     0.000000;
     12.000000    16.000000     0.021200     0.083400     0.021400   157.000000   157.000000   157.000000     0.000000     0.000000     1.000000     0.000000     0.000000;
     13.000000    15.000000     0.074400     0.244400     0.062680   157.000000   157.000000   157.000000     0.000000     0.000000     1.000000     0.000000     0.000000;
     14.000000    15.000000     0.059500     0.195000     0.050200   157.000000   157.000000   157.000000     0.000000     0.000000     1.000000     0.000000     0.000000;
     15.000000    17.000000     0.013200     0.043700     0.044400   314.000000   314.000000   314.000000     0.000000     0.000000     1.000000     0.000000     0.000000;
     15.000000    19.000000     0.012000     0.039400     0.010100   157.000000   157.000000   157.000000     0.000000     0.000000     1.000000     0.000000     0.000000;
     15.000000    33.000000     0.038000     0.124400     0.031940   157.000000   157.000000   157.000000     0.000000     0.000000     1.000000     0.000000     0.000000;
     16.000000    17.000000     0.045400     0.180100     0.046600   157.000000   157.000000   157.000000     0.000000     0.000000     1.000000     0.000000     0.000000;
     17.000000   113.000000     0.009130     0.030100     0.007680   157.000000   157.000000   157.000000     0.000000     0.000000     1.000000     0.000000     0.000000;
     17.000000    18.000000     0.012300     0.050500     0.012980   157.000000   157.000000   157.000000     0.000000     0.000000     1.000000     0.000000     0.000000;
     17.000000    31.000000     0.047400     0.156300     0.039900   157.000000   157.000000   157.000000     0.000000     0.000000     1.000000     0.000000     0.000000;
     18.000000    19.000000     0.011190     0.049300     0.011420   157.000000   157.000000   157.000000     0.000000     0.000000     1.000000     0.000000     0.000000;
     19.000000    20.000000     0.025200     0.117000     0.029800   157.000000   157.000000   157.000000     0.000000     0.000000     1.000000     0.000000     0.000000;
...